Clear 
new circuit.ColTestCKT
~ basekv=115 pu=1.0000 phases=3 bus1=SourceBus  

redirect Lines.dss
redirect Loads.dss
