Clear 

set defaultbasefrequency=60

new circuit.ColTestCKT basekv=33 pu=1.045 phases=3 bus1=Main01

redirect Transformers.dss
redirect Regulators.dss
redirect Lines.dss
redirect Loads.dss
redirect Capacitors.dss
redirect DER.dss

new energymeter.FH element=transformer.Sub_Xfmr terminal=1
set earthmodel=Deri

Set Voltagebases=[33, 11.4]
calcv

set maxcontroliter=50

Solve

buscoords BusCoords.dss
GISCoords GISCoords.dss

!plot circuit